#======================================================================

# CRYSTAL DATA

#----------------------------------------------------------------------

data_VESTA_phase_1


_chemical_name_common                  'XCrySDen XSF file'
_cell_length_a                         4.99679
_cell_length_b                         17.21068
_cell_length_c                         25.00000
_cell_angle_alpha                      90
_cell_angle_beta                       90
_cell_angle_gamma                      90.00002
_space_group_name_H-M_alt              'P 1'
_space_group_IT_number                 1

loop_
_space_group_symop_operation_xyz
   'x, y, z'

loop_
   _atom_site_label
   _atom_site_occupancy
   _atom_site_fract_x
   _atom_site_fract_y
   _atom_site_fract_z
   _atom_site_adp_type
   _atom_site_B_iso_or_equiv
   _atom_site_type_symbol
   Ti1        1.0     0.327326      0.050038      0.094820     Biso  1.000000 Ti
   Ti2        1.0     0.327189      0.249991      0.094288     Biso  1.000000 Ti
   Ti3        1.0     0.327277      0.449965      0.094369     Biso  1.000000 Ti
   Ti4        1.0     0.327502      0.649975      0.094476     Biso  1.000000 Ti
   Ti5        1.0     0.327513      0.850033      0.094458     Biso  1.000000 Ti
   Ti6        1.0     0.826975      0.149953     -0.014100     Biso  1.000000 Ti
   Ti7        1.0     0.826974      0.350002     -0.014159     Biso  1.000000 Ti
   Ti8        1.0     0.827162      0.550011     -0.014072     Biso  1.000000 Ti
   Ti9        1.0     0.827211      0.750004     -0.014031     Biso  1.000000 Ti
   Ti10       1.0     0.827180      0.950019     -0.014023     Biso  1.000000 Ti
   S1         1.0     0.618400      0.049948      0.924832     Biso  1.000000 S
   S2         1.0     0.618202      0.249980      0.924814     Biso  1.000000 S
   S3         1.0     0.618382      0.450056      0.924804     Biso  1.000000 S
   S4         1.0     0.618483      0.650033      0.924876     Biso  1.000000 S
   S5         1.0     0.618477      0.849994      0.924901     Biso  1.000000 S
   S6         1.0     0.536262      0.150193      0.155651     Biso  1.000000 S
   S7         1.0     0.536205      0.349954      0.155505     Biso  1.000000 S
   S8         1.0     0.536487      0.549888      0.155577     Biso  1.000000 S
   S9         1.0     0.537433      0.750000      0.155444     Biso  1.000000 S
   S10        1.0     0.536554      0.949997      0.155722     Biso  1.000000 S
   S11        1.0     0.827099      0.050028      0.057944     Biso  1.000000 S
   S12        1.0     0.826964      0.249997      0.057766     Biso  1.000000 S
   S13        1.0     0.827061      0.449968      0.057811     Biso  1.000000 S
   S14        1.0     0.827332      0.649979      0.057895     Biso  1.000000 S
   S15        1.0     0.827340      0.850024      0.057901     Biso  1.000000 S
   S16        1.0     0.327071      0.149839      0.022660     Biso  1.000000 S
   S17        1.0     0.327022      0.350017      0.022523     Biso  1.000000 S
   S18        1.0     0.327264      0.550030      0.022628     Biso  1.000000 S
   S19        1.0     0.327279      0.750000      0.022689     Biso  1.000000 S
   S20        1.0     0.327292      0.950106      0.022753     Biso  1.000000 S
   S21        1.0     0.036371      0.049938      0.924919     Biso  1.000000 S
   S22        1.0     0.036159      0.249965      0.924825     Biso  1.000000 S
   S23        1.0     0.036340      0.450049      0.924876     Biso  1.000000 S
   S24        1.0     0.036460      0.650037      0.924945     Biso  1.000000 S
   S25        1.0     0.036451      0.849983      0.924966     Biso  1.000000 S
   S26        1.0     0.117911      0.150189      0.155585     Biso  1.000000 S
   S27        1.0     0.117974      0.349927      0.155453     Biso  1.000000 S
   S28        1.0     0.118253      0.549875      0.155568     Biso  1.000000 S
   S29        1.0     0.119223      0.749998      0.155813     Biso  1.000000 S
   S30        1.0     0.118207      0.949995      0.155695     Biso  1.000000 S
   C1         1.0     0.370423      0.208316      0.309025     Biso  1.000000 C
   C2         1.0     0.370430      0.458326      0.308336     Biso  1.000000 C
   C3         1.0     0.370423      0.708317      0.306987     Biso  1.000000 C
   C4         1.0     0.370423      0.958312      0.307857     Biso  1.000000 C
   C5         1.0     0.870422      0.208318      0.308986     Biso  1.000000 C
   C6         1.0     0.870426      0.458325      0.308286     Biso  1.000000 C
   C7         1.0     0.870421      0.708318      0.306932     Biso  1.000000 C
   C8         1.0     0.870421      0.958315      0.307809     Biso  1.000000 C
   C9         1.0     0.370427      0.041673      0.308337     Biso  1.000000 C
   C10        1.0     0.370424      0.291683      0.309024     Biso  1.000000 C
   C11        1.0     0.370425      0.541687      0.307855     Biso  1.000000 C
   C12        1.0     0.370423      0.791681      0.306987     Biso  1.000000 C
   C13        1.0     0.870424      0.041674      0.308287     Biso  1.000000 C
   C14        1.0     0.870422      0.291682      0.308986     Biso  1.000000 C
   C15        1.0     0.870423      0.541685      0.307808     Biso  1.000000 C
   C16        1.0     0.870420      0.791680      0.306932     Biso  1.000000 C
   C17        1.0     0.120424      0.083313      0.308562     Biso  1.000000 C
   C18        1.0     0.120421      0.333321      0.308928     Biso  1.000000 C
   C19        1.0     0.120425      0.583319      0.307576     Biso  1.000000 C
   C20        1.0     0.120424      0.833315      0.307106     Biso  1.000000 C
   C21        1.0     0.620429      0.083313      0.308550     Biso  1.000000 C
   C22        1.0     0.620433      0.333320      0.308915     Biso  1.000000 C
   C23        1.0     0.620430      0.583318      0.307562     Biso  1.000000 C
   C24        1.0     0.620423      0.833316      0.307090     Biso  1.000000 C
   C25        1.0     0.120421      0.166679      0.308928     Biso  1.000000 C
   C26        1.0     0.120426      0.416687      0.308561     Biso  1.000000 C
   C27        1.0     0.120426      0.666684      0.307105     Biso  1.000000 C
   C28        1.0     0.120424      0.916680      0.307577     Biso  1.000000 C
   C29        1.0     0.620432      0.166679      0.308916     Biso  1.000000 C
   C30        1.0     0.620433      0.416686      0.308549     Biso  1.000000 C
   C31        1.0     0.620423      0.666683      0.307089     Biso  1.000000 C
   C32        1.0     0.620429      0.916681      0.307564     Biso  1.000000 C
