#======================================================================

# CRYSTAL DATA

#----------------------------------------------------------------------

data_VESTA_phase_1


_chemical_name_common                  ''
_cell_length_a                         4.93472
_cell_length_b                         17.09808
_cell_length_c                         8.02833
_cell_angle_alpha                      90
_cell_angle_beta                       90
_cell_angle_gamma                      90
_space_group_name_H-M_alt              'P 1'
_space_group_IT_number                 1

loop_
_space_group_symop_operation_xyz
   'x, y, z'
   'x, y+1/4, z'
   'x, y+1/2, z'
   'x, y+3/4, z'
   'x+1/2, y, z'
   'x+1/2, y+1/4, z'
   'x+1/2, y+1/2, z'
   'x+1/2, y+3/4, z'

loop_
   _atom_site_label
   _atom_site_occupancy
   _atom_site_fract_x
   _atom_site_fract_y
   _atom_site_fract_z
   _atom_site_adp_type
   _atom_site_B_iso_or_equiv
   _atom_site_type_symbol
   C0         1.0     0.375000      0.208355      0.239942     Biso  1.000000 C
   C0         1.0     0.375000      0.458355      0.239942     Biso  1.000000 C
   C0         1.0     0.375000      0.708355      0.239942     Biso  1.000000 C
   C0         1.0     0.375000      0.958355      0.239942     Biso  1.000000 C
   C0         1.0     0.875000      0.208355      0.239942     Biso  1.000000 C
   C0         1.0     0.875000      0.458355      0.239942     Biso  1.000000 C
   C0         1.0     0.875000      0.708355      0.239942     Biso  1.000000 C
   C0         1.0     0.875000      0.958355      0.239942     Biso  1.000000 C
   C0         1.0     0.375000      0.041645      0.239942     Biso  1.000000 C
   C0         1.0     0.375000      0.291645      0.239942     Biso  1.000000 C
   C0         1.0     0.375000      0.541645      0.239942     Biso  1.000000 C
   C0         1.0     0.375000      0.791645      0.239942     Biso  1.000000 C
   C0         1.0     0.875000      0.041645      0.239942     Biso  1.000000 C
   C0         1.0     0.875000      0.291645      0.239942     Biso  1.000000 C
   C0         1.0     0.875000      0.541645      0.239942     Biso  1.000000 C
   C0         1.0     0.875000      0.791645      0.239942     Biso  1.000000 C
   C0         1.0     0.125000      0.083355      0.239942     Biso  1.000000 C
   C0         1.0     0.125000      0.333355      0.239942     Biso  1.000000 C
   C0         1.0     0.125000      0.583355      0.239942     Biso  1.000000 C
   C0         1.0     0.125000      0.833355      0.239942     Biso  1.000000 C
   C0         1.0     0.625000      0.083355      0.239942     Biso  1.000000 C
   C0         1.0     0.625000      0.333355      0.239942     Biso  1.000000 C
   C0         1.0     0.625000      0.583355      0.239942     Biso  1.000000 C
   C0         1.0     0.625000      0.833355      0.239942     Biso  1.000000 C
   C0         1.0     0.125000      0.166645      0.239942     Biso  1.000000 C
   C0         1.0     0.125000      0.416645      0.239942     Biso  1.000000 C
   C0         1.0     0.125000      0.666645      0.239942     Biso  1.000000 C
   C0         1.0     0.125000      0.916645      0.239942     Biso  1.000000 C
   C0         1.0     0.625000      0.166645      0.239942     Biso  1.000000 C
   C0         1.0     0.625000      0.416645      0.239942     Biso  1.000000 C
   C0         1.0     0.625000      0.666645      0.239942     Biso  1.000000 C
   C0         1.0     0.625000      0.916645      0.239942     Biso  1.000000 C
