#======================================================================

# CRYSTAL DATA

#----------------------------------------------------------------------

data_VESTA_phase_1


_chemical_name_common                  ''
_cell_length_a                         4.27452
_cell_length_b                         2.46736
_cell_length_c                         8.02833
_cell_angle_alpha                      90
_cell_angle_beta                       90
_cell_angle_gamma                      90
_space_group_name_H-M_alt              'P 1'
_space_group_IT_number                 1

loop_
_space_group_symop_operation_xyz
   'x, y, z'

loop_
   _atom_site_label
   _atom_site_occupancy
   _atom_site_fract_x
   _atom_site_fract_y
   _atom_site_fract_z
   _atom_site_adp_type
   _atom_site_B_iso_or_equiv
   _atom_site_type_symbol
   C0         1.0     0.166579      0.250000      0.760058     Biso  1.000000 C
   C0         1.0     0.833421      0.750000      0.239942     Biso  1.000000 C
   C0         1.0     0.833421      0.250000      0.760058     Biso  1.000000 C
   C0         1.0     0.166579      0.750000      0.239942     Biso  1.000000 C
   C0         1.0     0.666579      0.750000      0.760058     Biso  1.000000 C
   C0         1.0     0.333421      0.250000      0.239942     Biso  1.000000 C
   C0         1.0     0.333421      0.750000      0.760058     Biso  1.000000 C
   C0         1.0     0.666579      0.250000      0.239942     Biso  1.000000 C
