#======================================================================

# CRYSTAL DATA

#----------------------------------------------------------------------

data_VESTA_phase_1


_chemical_name_common                  ''
_cell_length_a                         4.94760
_cell_length_b                         16.89350
_cell_length_c                         15.00000
_cell_angle_alpha                      90
_cell_angle_beta                       90
_cell_angle_gamma                      90
_space_group_name_H-M_alt              'P 1'
_space_group_IT_number                 1

loop_
_space_group_symop_operation_xyz
   'x, y, z'

loop_
   _atom_site_label
   _atom_site_occupancy
   _atom_site_fract_x
   _atom_site_fract_y
   _atom_site_fract_z
   _atom_site_adp_type
   _atom_site_B_iso_or_equiv
   _atom_site_type_symbol
   Ti         1.0     0.328448      0.050000      0.174570     Biso  1.000000 Ti
   Ti         1.0     0.328448      0.250000      0.174570     Biso  1.000000 Ti
   Ti         1.0     0.328448      0.450000      0.174570     Biso  1.000000 Ti
   Ti         1.0     0.328448      0.650000      0.174570     Biso  1.000000 Ti
   Ti         1.0     0.328448      0.850000      0.174570     Biso  1.000000 Ti
   Ti         1.0     0.824826      0.150000      0.000000     Biso  1.000000 Ti
   Ti         1.0     0.824826      0.350000      0.000000     Biso  1.000000 Ti
   Ti         1.0     0.824826      0.550000      0.000000     Biso  1.000000 Ti
   Ti         1.0     0.824826      0.750000      0.000000     Biso  1.000000 Ti
   Ti         1.0     0.824826      0.950000      0.000000     Biso  1.000000 Ti
   S          1.0     0.613877      0.050000      0.900229     Biso  1.000000 S
   S          1.0     0.613877      0.250000      0.900229     Biso  1.000000 S
   S          1.0     0.613877      0.450000      0.900229     Biso  1.000000 S
   S          1.0     0.613877      0.650000      0.900229     Biso  1.000000 S
   S          1.0     0.613877      0.850000      0.900229     Biso  1.000000 S
   S          1.0     0.539397      0.150000      0.274341     Biso  1.000000 S
   S          1.0     0.539397      0.350000      0.274341     Biso  1.000000 S
   S          1.0     0.539397      0.550000      0.274341     Biso  1.000000 S
   S          1.0     0.539397      0.750000      0.274341     Biso  1.000000 S
   S          1.0     0.539397      0.950000      0.274341     Biso  1.000000 S
   S          1.0     0.824690      0.050000      0.116996     Biso  1.000000 S
   S          1.0     0.824690      0.250000      0.116996     Biso  1.000000 S
   S          1.0     0.824690      0.450000      0.116996     Biso  1.000000 S
   S          1.0     0.824690      0.650000      0.116996     Biso  1.000000 S
   S          1.0     0.824690      0.850000      0.116996     Biso  1.000000 S
   S          1.0     0.328583      0.150000      0.057573     Biso  1.000000 S
   S          1.0     0.328583      0.350000      0.057573     Biso  1.000000 S
   S          1.0     0.328583      0.550000      0.057573     Biso  1.000000 S
   S          1.0     0.328583      0.750000      0.057573     Biso  1.000000 S
   S          1.0     0.328583      0.950000      0.057573     Biso  1.000000 S
   S          1.0     0.041574      0.050000      0.898263     Biso  1.000000 S
   S          1.0     0.041574      0.250000      0.898263     Biso  1.000000 S
   S          1.0     0.041574      0.450000      0.898263     Biso  1.000000 S
   S          1.0     0.041574      0.650000      0.898263     Biso  1.000000 S
   S          1.0     0.041574      0.850000      0.898263     Biso  1.000000 S
   S          1.0     0.111700      0.150000      0.276306     Biso  1.000000 S
   S          1.0     0.111700      0.350000      0.276306     Biso  1.000000 S
   S          1.0     0.111700      0.550000      0.276306     Biso  1.000000 S
   S          1.0     0.111700      0.750000      0.276306     Biso  1.000000 S
   S          1.0     0.111700      0.950000      0.276306     Biso  1.000000 S
