data_block_1
_audit_creation_date         'Tue Jan 16 12:25:54 2018'
_audit_creation_method       'generated by GDIS v0.99'


_cell_length_a              4.9476
_cell_length_b              3.3787
_cell_length_c             15.0000
_cell_angle_alpha          90.00
_cell_angle_beta           90.00
_cell_angle_gamma          90.00


_symmetry_space_group_name_H-M   'P 1'
_symmetry_Int_Tables_number       1


loop_
_atom_site_label
_atom_site_fract_x
_atom_site_fract_y
_atom_site_fract_z
Ti   0.328448   0.250000   0.174570
Ti   0.824826   0.750000   0.000000
 S   0.613877   0.250000   0.900229
 S   0.539397   0.750000   0.274341
 S   0.824690   0.250000   0.116996
 S   0.328583   0.750000   0.057573
 S   0.041574   0.250000   0.898263
 S   0.111700   0.750000   0.276306


