#======================================================================

# CRYSTAL DATA

#----------------------------------------------------------------------

data_VESTA_phase_1


_chemical_name_common                  'xcrysden xsf file'
_cell_length_a                         9.99358
_cell_length_b                         17.21068
_cell_length_c                         25.00000
_cell_angle_alpha                      90
_cell_angle_beta                       90
_cell_angle_gamma                      90.00002
_space_group_name_H-M_alt              'P 1'
_space_group_IT_number                 1

loop_
_space_group_symop_operation_xyz
   'x, y, z'

loop_
   _atom_site_label
   _atom_site_occupancy
   _atom_site_fract_x
   _atom_site_fract_y
   _atom_site_fract_z
   _atom_site_adp_type
   _atom_site_B_iso_or_equiv
   _atom_site_type_symbol
   Ti1        1.0     0.163663      0.050038      0.094820     Biso  1.000000 Ti
   Ti1        1.0     0.663663      0.050038      0.094820     Biso  1.000000 Ti
   Ti2        1.0     0.163594      0.249991      0.094288     Biso  1.000000 Ti
   Ti2        1.0     0.663594      0.249991      0.094288     Biso  1.000000 Ti
   Ti3        1.0     0.163639      0.449965      0.094369     Biso  1.000000 Ti
   Ti3        1.0     0.663639      0.449965      0.094369     Biso  1.000000 Ti
   Ti4        1.0     0.163751      0.649975      0.094476     Biso  1.000000 Ti
   Ti4        1.0     0.663751      0.649975      0.094476     Biso  1.000000 Ti
   Ti5        1.0     0.163757      0.850033      0.094458     Biso  1.000000 Ti
   Ti5        1.0     0.663757      0.850033      0.094458     Biso  1.000000 Ti
   Ti6        1.0     0.413487      0.149953      0.985900     Biso  1.000000 Ti
   Ti6        1.0     0.913487      0.149953      0.985900     Biso  1.000000 Ti
   Ti7        1.0     0.413487      0.350002      0.985841     Biso  1.000000 Ti
   Ti7        1.0     0.913487      0.350002      0.985841     Biso  1.000000 Ti
   Ti8        1.0     0.413581      0.550011      0.985928     Biso  1.000000 Ti
   Ti8        1.0     0.913581      0.550011      0.985928     Biso  1.000000 Ti
   Ti9        1.0     0.413606      0.750004      0.985969     Biso  1.000000 Ti
   Ti9        1.0     0.913606      0.750004      0.985969     Biso  1.000000 Ti
   Ti10       1.0     0.413590      0.950019      0.985977     Biso  1.000000 Ti
   Ti10       1.0     0.913590      0.950019      0.985977     Biso  1.000000 Ti
   S1         1.0     0.309200      0.049948      0.924832     Biso  1.000000 S
   S1         1.0     0.809200      0.049948      0.924832     Biso  1.000000 S
   S2         1.0     0.309101      0.249980      0.924814     Biso  1.000000 S
   S2         1.0     0.809101      0.249980      0.924814     Biso  1.000000 S
   S3         1.0     0.309191      0.450056      0.924804     Biso  1.000000 S
   S3         1.0     0.809191      0.450056      0.924804     Biso  1.000000 S
   S4         1.0     0.309242      0.650033      0.924876     Biso  1.000000 S
   S4         1.0     0.809242      0.650033      0.924876     Biso  1.000000 S
   S5         1.0     0.309238      0.849994      0.924901     Biso  1.000000 S
   S5         1.0     0.809238      0.849994      0.924901     Biso  1.000000 S
   S6         1.0     0.268131      0.150193      0.155651     Biso  1.000000 S
   S6         1.0     0.768131      0.150193      0.155651     Biso  1.000000 S
   S7         1.0     0.268102      0.349954      0.155505     Biso  1.000000 S
   S7         1.0     0.768102      0.349954      0.155505     Biso  1.000000 S
   S8         1.0     0.268243      0.549888      0.155577     Biso  1.000000 S
   S8         1.0     0.768243      0.549888      0.155577     Biso  1.000000 S
   S9         1.0     0.268717      0.750000      0.155444     Biso  1.000000 S
   S9         1.0     0.768717      0.750000      0.155444     Biso  1.000000 S
   S10        1.0     0.268277      0.949997      0.155722     Biso  1.000000 S
   S10        1.0     0.768277      0.949997      0.155722     Biso  1.000000 S
   S11        1.0     0.413550      0.050028      0.057944     Biso  1.000000 S
   S11        1.0     0.913550      0.050028      0.057944     Biso  1.000000 S
   S12        1.0     0.413482      0.249997      0.057766     Biso  1.000000 S
   S12        1.0     0.913482      0.249997      0.057766     Biso  1.000000 S
   S13        1.0     0.413530      0.449968      0.057811     Biso  1.000000 S
   S13        1.0     0.913530      0.449968      0.057811     Biso  1.000000 S
   S14        1.0     0.413666      0.649979      0.057895     Biso  1.000000 S
   S14        1.0     0.913666      0.649979      0.057895     Biso  1.000000 S
   S15        1.0     0.413670      0.850024      0.057901     Biso  1.000000 S
   S15        1.0     0.913670      0.850024      0.057901     Biso  1.000000 S
   S16        1.0     0.163536      0.149839      0.022660     Biso  1.000000 S
   S16        1.0     0.663536      0.149839      0.022660     Biso  1.000000 S
   S17        1.0     0.163511      0.350017      0.022523     Biso  1.000000 S
   S17        1.0     0.663511      0.350017      0.022523     Biso  1.000000 S
   S18        1.0     0.163632      0.550030      0.022628     Biso  1.000000 S
   S18        1.0     0.663632      0.550030      0.022628     Biso  1.000000 S
   S19        1.0     0.163640      0.750000      0.022689     Biso  1.000000 S
   S19        1.0     0.663640      0.750000      0.022689     Biso  1.000000 S
   S20        1.0     0.163646      0.950106      0.022753     Biso  1.000000 S
   S20        1.0     0.663646      0.950106      0.022753     Biso  1.000000 S
   S21        1.0     0.018186      0.049938      0.924919     Biso  1.000000 S
   S21        1.0     0.518186      0.049938      0.924919     Biso  1.000000 S
   S22        1.0     0.018080      0.249965      0.924825     Biso  1.000000 S
   S22        1.0     0.518080      0.249965      0.924825     Biso  1.000000 S
   S23        1.0     0.018170      0.450049      0.924876     Biso  1.000000 S
   S23        1.0     0.518170      0.450049      0.924876     Biso  1.000000 S
   S24        1.0     0.018230      0.650037      0.924945     Biso  1.000000 S
   S24        1.0     0.518230      0.650037      0.924945     Biso  1.000000 S
   S25        1.0     0.018226      0.849983      0.924966     Biso  1.000000 S
   S25        1.0     0.518226      0.849983      0.924966     Biso  1.000000 S
   S26        1.0     0.058956      0.150189      0.155585     Biso  1.000000 S
   S26        1.0     0.558956      0.150189      0.155585     Biso  1.000000 S
   S27        1.0     0.058987      0.349927      0.155453     Biso  1.000000 S
   S27        1.0     0.558987      0.349927      0.155453     Biso  1.000000 S
   S28        1.0     0.059127      0.549875      0.155568     Biso  1.000000 S
   S28        1.0     0.559127      0.549875      0.155568     Biso  1.000000 S
   S29        1.0     0.059611      0.749998      0.155813     Biso  1.000000 S
   S29        1.0     0.559611      0.749998      0.155813     Biso  1.000000 S
   S30        1.0     0.059104      0.949995      0.155695     Biso  1.000000 S
   S30        1.0     0.559104      0.949995      0.155695     Biso  1.000000 S
   C1         1.0     0.185211      0.208316      0.284927     Biso  1.000000 C
   C1         1.0     0.685211      0.208316      0.284927     Biso  1.000000 C
   C2         1.0     0.185215      0.458326      0.284927     Biso  1.000000 C
   C2         1.0     0.685215      0.458326      0.284927     Biso  1.000000 C
   C3         1.0     0.185211      0.708317      0.284927     Biso  1.000000 C
   C3         1.0     0.685211      0.708317      0.284927     Biso  1.000000 C
   C4         1.0     0.185211      0.958312      0.284927     Biso  1.000000 C
   C4         1.0     0.685211      0.958312      0.284927     Biso  1.000000 C
   C5         1.0     0.435211      0.208318      0.284927     Biso  1.000000 C
   C5         1.0     0.935211      0.208318      0.284927     Biso  1.000000 C
   C6         1.0     0.435213      0.458325      0.284927     Biso  1.000000 C
   C6         1.0     0.935213      0.458325      0.284927     Biso  1.000000 C
   C7         1.0     0.435210      0.708318      0.284927     Biso  1.000000 C
   C7         1.0     0.935210      0.708318      0.284927     Biso  1.000000 C
   C8         1.0     0.435210      0.958315      0.284927     Biso  1.000000 C
   C8         1.0     0.935210      0.958315      0.284927     Biso  1.000000 C
   C9         1.0     0.185214      0.041673      0.284927     Biso  1.000000 C
   C9         1.0     0.685214      0.041673      0.284927     Biso  1.000000 C
   C10        1.0     0.185212      0.291683      0.284927     Biso  1.000000 C
   C10        1.0     0.685212      0.291683      0.284927     Biso  1.000000 C
   C11        1.0     0.185212      0.541687      0.284927     Biso  1.000000 C
   C11        1.0     0.685212      0.541687      0.284927     Biso  1.000000 C
   C12        1.0     0.185211      0.791681      0.284927     Biso  1.000000 C
   C12        1.0     0.685211      0.791681      0.284927     Biso  1.000000 C
   C13        1.0     0.435212      0.041674      0.284927     Biso  1.000000 C
   C13        1.0     0.935212      0.041674      0.284927     Biso  1.000000 C
   C14        1.0     0.435211      0.291682      0.284927     Biso  1.000000 C
   C14        1.0     0.935211      0.291682      0.284927     Biso  1.000000 C
   C15        1.0     0.435212      0.541685      0.284927     Biso  1.000000 C
   C15        1.0     0.935212      0.541685      0.284927     Biso  1.000000 C
   C16        1.0     0.435210      0.791680      0.284927     Biso  1.000000 C
   C16        1.0     0.935210      0.791680      0.284927     Biso  1.000000 C
   C17        1.0     0.060212      0.083313      0.284927     Biso  1.000000 C
   C17        1.0     0.560212      0.083313      0.284927     Biso  1.000000 C
   C18        1.0     0.060210      0.333321      0.284927     Biso  1.000000 C
   C18        1.0     0.560210      0.333321      0.284927     Biso  1.000000 C
   C19        1.0     0.060213      0.583319      0.284927     Biso  1.000000 C
   C19        1.0     0.560213      0.583319      0.284927     Biso  1.000000 C
   C20        1.0     0.060212      0.833315      0.284927     Biso  1.000000 C
   C20        1.0     0.560212      0.833315      0.284927     Biso  1.000000 C
   C21        1.0     0.310214      0.083313      0.284927     Biso  1.000000 C
   C21        1.0     0.810214      0.083313      0.284927     Biso  1.000000 C
   C22        1.0     0.310216      0.333320      0.284927     Biso  1.000000 C
   C22        1.0     0.810216      0.333320      0.284927     Biso  1.000000 C
   C23        1.0     0.310215      0.583318      0.284927     Biso  1.000000 C
   C23        1.0     0.810215      0.583318      0.284927     Biso  1.000000 C
   C24        1.0     0.310212      0.833316      0.284927     Biso  1.000000 C
   C24        1.0     0.810212      0.833316      0.284927     Biso  1.000000 C
   C25        1.0     0.060210      0.166679      0.284927     Biso  1.000000 C
   C25        1.0     0.560210      0.166679      0.284927     Biso  1.000000 C
   C26        1.0     0.060213      0.416687      0.284927     Biso  1.000000 C
   C26        1.0     0.560213      0.416687      0.284927     Biso  1.000000 C
   C27        1.0     0.060213      0.666684      0.284927     Biso  1.000000 C
   C27        1.0     0.560213      0.666684      0.284927     Biso  1.000000 C
   C28        1.0     0.060212      0.916680      0.284927     Biso  1.000000 C
   C28        1.0     0.560212      0.916680      0.284927     Biso  1.000000 C
   C29        1.0     0.310216      0.166679      0.284927     Biso  1.000000 C
   C29        1.0     0.810216      0.166679      0.284927     Biso  1.000000 C
   C30        1.0     0.310216      0.416686      0.284927     Biso  1.000000 C
   C30        1.0     0.810216      0.416686      0.284927     Biso  1.000000 C
   C31        1.0     0.310212      0.666683      0.284927     Biso  1.000000 C
   C31        1.0     0.810212      0.666683      0.284927     Biso  1.000000 C
   C32        1.0     0.310214      0.916681      0.284927     Biso  1.000000 C
   C32        1.0     0.810214      0.916681      0.284927     Biso  1.000000 C
   Mg32       1.0     0.41355      0.05003      0.208691566     Biso  1.000000 Mg
